data_image0
_cell_length_a       8.08
_cell_length_b       16.6655
_cell_length_c       36
_cell_angle_alpha    90
_cell_angle_beta     90
_cell_angle_gamma    90

_symmetry_space_group_name_H-M    "P 1"
_symmetry_int_tables_number       1

loop_
  _symmetry_equiv_pos_as_xyz
  'x, y, z'

loop_
  _atom_site_label
  _atom_site_occupancy
  _atom_site_fract_x
  _atom_site_fract_y
  _atom_site_fract_z
  _atom_site_thermal_displace_type
  _atom_site_B_iso_or_equiv
  _atom_site_type_symbol
  Al1      1.0000 0.00000  0.02941  0.45245  Biso   1.000  Al
  Al2      1.0000 0.50000  0.11994  0.66348  Biso   1.000  Al
  Al3      1.0000 0.00000  0.46877  0.73922  Biso   1.000  Al
  Al4      1.0000 0.50000  0.14307  0.58584  Biso   1.000  Al
  Al5      1.0000 0.00000  0.30865  0.74496  Biso   1.000  Al
  Al6      1.0000 0.00000  0.07548  0.80883  Biso   1.000  Al
  Al7      1.0000 0.00000  0.22735  0.80472  Biso   1.000  Al
  Al8      1.0000 0.00000  0.22267  0.68695  Biso   1.000  Al
  Al9      1.0000 0.50000  0.15141  0.80678  Biso   1.000  Al
  Al10     1.0000 0.21880  0.72926  0.61805  Biso   1.000  Al
  Al11     1.0000 0.71880  0.59644  0.53534  Biso   1.000  Al
  Al12     1.0000 0.78120  0.72926  0.61805  Biso   1.000  Al
  Al13     1.0000 0.28120  0.59644  0.53534  Biso   1.000  Al
  Al14     1.0000 0.27900  0.76722  0.54795  Biso   1.000  Al
  Al15     1.0000 0.77900  0.55849  0.60544  Biso   1.000  Al
  Al16     1.0000 0.72100  0.76722  0.54795  Biso   1.000  Al
  Al17     1.0000 0.22100  0.55849  0.60544  Biso   1.000  Al
  Al18     1.0000 0.28320  0.15907  0.52282  Biso   1.000  Al
  Al19     1.0000 0.78320  0.48477  0.67621  Biso   1.000  Al
  Al20     1.0000 0.71680  0.15907  0.52282  Biso   1.000  Al
  Al21     1.0000 0.00000  0.44564  0.81687  Biso   1.000  Al
  Al22     1.0000 0.21680  0.48477  0.67621  Biso   1.000  Al
  Al23     1.0000 0.50000  0.34261  0.79411  Biso   1.000  Al
  Al24     1.0000 0.50000  0.25248  0.69953  Biso   1.000  Al
  Al25     1.0000 0.50000  0.97059  0.34358  Biso   1.000  Al
  Al26     1.0000 0.75000  0.85294  0.35719  Biso   1.000  Al
  Al27     1.0000 0.75000  0.94118  0.28915  Biso   1.000  Al
  Al28     1.0000 0.50000  0.88235  0.41163  Biso   1.000  Al
  Al29     1.0000 0.75000  0.91176  0.46606  Biso   1.000  Al
  Al30     1.0000 0.71880  0.05497  0.77144  Biso   1.000  Al
  Al31     1.0000 0.28120  0.05497  0.77144  Biso   1.000  Al
  Al32     1.0000 0.77900  0.09292  0.70134  Biso   1.000  Al
  Al33     1.0000 0.22100  0.09292  0.70134  Biso   1.000  Al
  Al34     1.0000 0.28320  0.49235  0.78395  Biso   1.000  Al
  Al35     1.0000 0.00000  0.50000  0.50000  Biso   1.000  Al
  Al36     1.0000 0.71680  0.49235  0.78395  Biso   1.000  Al
  Al37     1.0000 0.21680  0.16664  0.63056  Biso   1.000  Al
  Al38     1.0000 0.28870  0.37365  0.72763  Biso   1.000  Al
  Al39     1.0000 0.78870  0.04794  0.57424  Biso   1.000  Al
  Al40     1.0000 0.71130  0.37365  0.72763  Biso   1.000  Al
  Al41     1.0000 0.21130  0.04794  0.57424  Biso   1.000  Al
  Al42     1.0000 0.26660  0.21628  0.75708  Biso   1.000  Al
  Al43     1.0000 0.73340  0.21628  0.75708  Biso   1.000  Al
  Al44     1.0000 0.00000  0.01690  0.64072  Biso   1.000  Al
  Al45     1.0000 0.28870  0.27776  0.57915  Biso   1.000  Al
  Al46     1.0000 0.78870  0.60347  0.73254  Biso   1.000  Al
  Al47     1.0000 0.71130  0.27776  0.57915  Biso   1.000  Al
  Al48     1.0000 0.21880  0.92215  0.68873  Biso   1.000  Al
  Al49     1.0000 0.78120  0.92215  0.68873  Biso   1.000  Al
  Al50     1.0000 0.27900  0.88420  0.75883  Biso   1.000  Al
  Al51     1.0000 0.72100  0.88420  0.75883  Biso   1.000  Al
  Al52     1.0000 0.28320  0.81048  0.82960  Biso   1.000  Al
  Al53     1.0000 0.71680  0.81048  0.82960  Biso   1.000  Al
  Al54     1.0000 0.76660  0.89058  0.60369  Biso   1.000  Al
  Al55     1.0000 0.23340  0.89058  0.60369  Biso   1.000  Al
  Al56     1.0000 0.00000  0.72464  0.76064  Biso   1.000  Al
  Al57     1.0000 0.50000  0.96022  0.81945  Biso   1.000  Al
  Al58     1.0000 0.00000  0.85718  0.79668  Biso   1.000  Al
  Al59     1.0000 0.00000  0.98441  0.74456  Biso   1.000  Al
  Al60     1.0000 0.50000  0.99271  0.71560  Biso   1.000  Al
  Al61     1.0000 0.50000  0.98295  0.59157  Biso   1.000  Al
  Al62     1.0000 0.50000  0.90164  0.65133  Biso   1.000  Al
  Al63     1.0000 0.50000  0.75445  0.77321  Biso   1.000  Al
  Al64     1.0000 0.25040  0.65141  0.80678  Biso   1.000  Al
  Al65     1.0000 0.74960  0.65141  0.80678  Biso   1.000  Al
  Al66     1.0000 0.00000  0.82571  0.65339  Biso   1.000  Al
  Al67     1.0000 0.50000  0.50000  0.50000  Biso   1.000  Al
  Al68     1.0000 0.24960  0.32571  0.65339  Biso   1.000  Al
  Al69     1.0000 0.74960  0.00000  0.50000  Biso   1.000  Al
  Al70     1.0000 0.75040  0.32571  0.65339  Biso   1.000  Al
  Al71     1.0000 0.21130  0.60347  0.73254  Biso   1.000  Al
  Al72     1.0000 0.26660  0.43513  0.54970  Biso   1.000  Al
  Al73     1.0000 0.76660  0.76084  0.70309  Biso   1.000  Al
  Al74     1.0000 0.73340  0.43513  0.54970  Biso   1.000  Al
  Al75     1.0000 0.23340  0.76084  0.70309  Biso   1.000  Al
  Al76     1.0000 0.00000  0.92677  0.54614  Biso   1.000  Al
  Al77     1.0000 0.50000  0.39893  0.60725  Biso   1.000  Al
  Al78     1.0000 0.00000  0.63451  0.66606  Biso   1.000  Al
  Al79     1.0000 0.50000  0.30880  0.51267  Biso   1.000  Al
  Al80     1.0000 0.50000  0.82353  0.30276  Biso   1.000  Al
  Al81     1.0000 0.50000  0.53147  0.64329  Biso   1.000  Al
  Al82     1.0000 0.50000  0.50835  0.72094  Biso   1.000  Al
  Al83     1.0000 0.00000  0.66701  0.56221  Biso   1.000  Al
  Al84     1.0000 0.50000  0.65870  0.59117  Biso   1.000  Al
  Al85     1.0000 0.00000  0.34276  0.56182  Biso   1.000  Al
  Al86     1.0000 0.50000  0.66847  0.71520  Biso   1.000  Al
  Al87     1.0000 0.50000  0.74977  0.65544  Biso   1.000  Al
  Al88     1.0000 0.00000  0.42874  0.61983  Biso   1.000  Al
  Al89     1.0000 0.50000  0.89696  0.53356  Biso   1.000  Al
  Al90     1.0000 0.25040  0.00000  0.50000  Biso   1.000  Al
  Al91     1.0000 0.00000  0.18264  0.56755  Biso   1.000  Al
  Al92     1.0000 0.75000  0.88235  0.18028  Biso   1.000  Al
  Al93     1.0000 0.78320  0.16664  0.63056  Biso   1.000  Al
  Al94     1.0000 0.50000  0.91176  0.23471  Biso   1.000  Al
  Al95     1.0000 0.25000  0.50000  0.16667  Biso   1.000  Al
  Al96     1.0000 0.00000  0.52941  0.22110  Biso   1.000  Al
  Al97     1.0000 0.00000  0.67647  0.26193  Biso   1.000  Al
  Al98     1.0000 0.25000  0.55882  0.27554  Biso   1.000  Al
  Al99     1.0000 0.25000  0.64706  0.20749  Biso   1.000  Al
  Al100    1.0000 0.00000  0.58824  0.32997  Biso   1.000  Al
  Al101    1.0000 0.00000  0.73529  0.37080  Biso   1.000  Al
  Al102    1.0000 0.25000  0.61765  0.38441  Biso   1.000  Al
  Al103    1.0000 0.25000  0.70588  0.31637  Biso   1.000  Al
  Al104    1.0000 0.00000  0.64706  0.43885  Biso   1.000  Al
  Al105    1.0000 0.25000  0.52941  0.45245  Biso   1.000  Al
  Al106    1.0000 0.00000  0.79412  0.47967  Biso   1.000  Al
  Al107    1.0000 0.25000  0.76471  0.42524  Biso   1.000  Al
  Al108    1.0000 0.00000  0.76471  0.19388  Biso   1.000  Al
  Al109    1.0000 0.00000  0.91176  0.23471  Biso   1.000  Al
  Al110    1.0000 0.25000  0.79412  0.24832  Biso   1.000  Al
  Al111    1.0000 0.25000  0.88235  0.18028  Biso   1.000  Al
  Al112    1.0000 0.00000  0.82353  0.30276  Biso   1.000  Al
  Al113    1.0000 0.75000  0.79412  0.24832  Biso   1.000  Al
  Al114    1.0000 0.25000  0.85294  0.35719  Biso   1.000  Al
  Al115    1.0000 0.25000  0.94118  0.28915  Biso   1.000  Al
  Al116    1.0000 0.00000  0.88235  0.41163  Biso   1.000  Al
  Al117    1.0000 0.25000  0.67647  0.49328  Biso   1.000  Al
  Al118    1.0000 0.25000  0.91176  0.46606  Biso   1.000  Al
  Al119    1.0000 0.00000  0.41176  0.46606  Biso   1.000  Al
  Al120    1.0000 0.25000  0.38235  0.41163  Biso   1.000  Al
  Al121    1.0000 0.25000  0.00000  0.39802  Biso   1.000  Al
  Al122    1.0000 0.00000  0.00000  0.16667  Biso   1.000  Al
  Al123    1.0000 0.00000  0.14706  0.20749  Biso   1.000  Al
  Al124    1.0000 0.25000  0.02941  0.22110  Biso   1.000  Al
  Al125    1.0000 0.00000  0.05882  0.27554  Biso   1.000  Al
  Al126    1.0000 0.00000  0.20588  0.31637  Biso   1.000  Al
  Al127    1.0000 0.25000  0.08824  0.32997  Biso   1.000  Al
  Al128    1.0000 0.25000  0.17647  0.26193  Biso   1.000  Al
  Al129    1.0000 0.00000  0.11765  0.38441  Biso   1.000  Al
  Al130    1.0000 0.00000  0.26471  0.42524  Biso   1.000  Al
  Al131    1.0000 0.25000  0.47059  0.34358  Biso   1.000  Al
  Al132    1.0000 0.25000  0.14706  0.43885  Biso   1.000  Al
  Al133    1.0000 0.00000  0.17647  0.49328  Biso   1.000  Al
  Al134    1.0000 0.25000  0.29412  0.47967  Biso   1.000  Al
  Al135    1.0000 0.00000  0.38235  0.18028  Biso   1.000  Al
  Al136    1.0000 0.25000  0.26471  0.19388  Biso   1.000  Al
  Al137    1.0000 0.00000  0.29412  0.24832  Biso   1.000  Al
  Al138    1.0000 0.00000  0.44118  0.28915  Biso   1.000  Al
  Al139    1.0000 0.25000  0.32353  0.30276  Biso   1.000  Al
  Al140    1.0000 0.25000  0.41176  0.23471  Biso   1.000  Al
  Al141    1.0000 0.00000  0.35294  0.35719  Biso   1.000  Al
  Al142    1.0000 0.00000  0.50000  0.39802  Biso   1.000  Al
  Al143    1.0000 0.25000  0.23529  0.37080  Biso   1.000  Al
  Al144    1.0000 0.50000  0.02941  0.45245  Biso   1.000  Al
  Al145    1.0000 0.00000  0.97059  0.34358  Biso   1.000  Al
  Al146    1.0000 0.50000  0.00000  0.16667  Biso   1.000  Al
  Al147    1.0000 0.75000  0.00000  0.39802  Biso   1.000  Al
  Al148    1.0000 0.50000  0.35294  0.35719  Biso   1.000  Al
  Al149    1.0000 0.50000  0.50000  0.39802  Biso   1.000  Al
  Al150    1.0000 0.75000  0.38235  0.41163  Biso   1.000  Al
  Al151    1.0000 0.75000  0.47059  0.34358  Biso   1.000  Al
  Al152    1.0000 0.50000  0.41176  0.46606  Biso   1.000  Al
  Al153    1.0000 0.75000  0.52941  0.45245  Biso   1.000  Al
  Al154    1.0000 0.75000  0.50000  0.16667  Biso   1.000  Al
  Al155    1.0000 0.50000  0.52941  0.22110  Biso   1.000  Al
  Al156    1.0000 0.50000  0.67647  0.26193  Biso   1.000  Al
  Al157    1.0000 0.75000  0.55882  0.27554  Biso   1.000  Al
  Al158    1.0000 0.75000  0.64706  0.20749  Biso   1.000  Al
  Al159    1.0000 0.50000  0.58824  0.32997  Biso   1.000  Al
  Al160    1.0000 0.50000  0.73529  0.37080  Biso   1.000  Al
  Al161    1.0000 0.75000  0.61765  0.38441  Biso   1.000  Al
  Al162    1.0000 0.75000  0.70588  0.31637  Biso   1.000  Al
  Al163    1.0000 0.50000  0.64706  0.43885  Biso   1.000  Al
  Al164    1.0000 0.50000  0.79412  0.47967  Biso   1.000  Al
  Al165    1.0000 0.75000  0.67647  0.49328  Biso   1.000  Al
  Al166    1.0000 0.75000  0.76471  0.42524  Biso   1.000  Al
  Al167    1.0000 0.50000  0.76471  0.19388  Biso   1.000  Al
  Al168    1.0000 0.75000  0.32353  0.30276  Biso   1.000  Al
  Al169    1.0000 0.50000  0.44118  0.28915  Biso   1.000  Al
  Al170    1.0000 0.75000  0.41176  0.23471  Biso   1.000  Al
  Al171    1.0000 0.75000  0.26471  0.19388  Biso   1.000  Al
  Al172    1.0000 0.50000  0.14706  0.20749  Biso   1.000  Al
  Al173    1.0000 0.75000  0.02941  0.22110  Biso   1.000  Al
  Al174    1.0000 0.50000  0.05882  0.27554  Biso   1.000  Al
  Al175    1.0000 0.50000  0.20588  0.31637  Biso   1.000  Al
  Al176    1.0000 0.75000  0.08824  0.32997  Biso   1.000  Al
  Al177    1.0000 0.75000  0.17647  0.26193  Biso   1.000  Al
  Al178    1.0000 0.50000  0.11765  0.38441  Biso   1.000  Al
  Al179    1.0000 0.50000  0.26471  0.42524  Biso   1.000  Al
  Al180    1.0000 0.75000  0.14706  0.43885  Biso   1.000  Al
  Al181    1.0000 0.75000  0.23529  0.37080  Biso   1.000  Al
  Al182    1.0000 0.50000  0.29412  0.24832  Biso   1.000  Al
  Al183    1.0000 0.50000  0.17647  0.49328  Biso   1.000  Al
  Al184    1.0000 0.00000  0.30880  0.51267  Biso   1.000  Al
  Al185    1.0000 0.50000  0.38235  0.18028  Biso   1.000  Al
  Al186    1.0000 0.75000  0.29412  0.47967  Biso   1.000  Al
  Fe1      1.0000 0.00000  0.27056  0.62219  Biso   1.000  Fe
  Fe2      1.0000 0.50000  0.59626  0.77558  Biso   1.000  Fe
  Fe3      1.0000 0.70620  0.63064  0.66621  Biso   1.000  Fe
  Fe4      1.0000 0.50000  0.84004  0.71566  Biso   1.000  Fe
  Fe5      1.0000 0.29380  0.63064  0.66621  Biso   1.000  Fe
  Fe6      1.0000 0.50000  0.13046  0.73879  Biso   1.000  Fe
  Fe7      1.0000 0.50000  0.25767  0.62799  Biso   1.000  Fe
  Fe8      1.0000 0.00000  0.58338  0.78137  Biso   1.000  Fe
  Fe9      1.0000 0.00000  0.13708  0.74450  Biso   1.000  Fe
  Fe10     1.0000 0.00000  0.84666  0.72137  Biso   1.000  Fe
  Fe11     1.0000 0.00000  0.80475  0.58541  Biso   1.000  Fe
  Fe12     1.0000 0.00000  0.51434  0.56228  Biso   1.000  Fe
  Fe13     1.0000 0.50000  0.81137  0.59111  Biso   1.000  Fe
  Fe14     1.0000 0.00000  0.38086  0.68459  Biso   1.000  Fe
  Fe15     1.0000 0.79380  0.95634  0.81960  Biso   1.000  Fe
  Fe16     1.0000 0.20620  0.95634  0.81960  Biso   1.000  Fe
  Fe17     1.0000 0.50000  0.05515  0.53120  Biso   1.000  Fe
  Fe18     1.0000 0.20620  0.34648  0.79395  Biso   1.000  Fe
  Fe19     1.0000 0.70620  0.02078  0.64056  Biso   1.000  Fe
  Fe20     1.0000 0.79380  0.34648  0.79395  Biso   1.000  Fe
  Fe21     1.0000 0.29380  0.02078  0.64056  Biso   1.000  Fe
  Fe22     1.0000 0.00000  0.06804  0.52540  Biso   1.000  Fe
  Fe23     1.0000 0.50000  0.39374  0.67879  Biso   1.000  Fe
  Fe24     1.0000 0.50000  0.52095  0.56798  Biso   1.000  Fe
  Fe25     1.0000 0.00000  0.71945  0.83218  Biso   1.000  Fe
